121596705
  -OEChem-06182412573D

 52 53  0     1  0  0  0  0  0999 V2000
    3.8221   -1.3067    0.9270 S   0  0  0  0  0  0  0  0  0  0  0  0
   -0.4080    2.9103    0.1409 O   0  0  0  0  0  0  0  0  0  0  0  0
    1.9515   -4.0614   -0.8907 O   0  0  0  0  0  0  0  0  0  0  0  0
   -3.9554    0.6036    1.0998 N   0  0  0  0  0  0  0  0  0  0  0  0
   -1.1476    1.1937   -1.2382 N   0  0  0  0  0  0  0  0  0  0  0  0
    1.0484    1.8885   -1.3486 N   0  0  0  0  0  0  0  0  0  0  0  0
   -2.7295    0.2061    0.3944 C   0  0  1  0  0  0  0  0  0  0  0  0
   -2.8959   -1.2689   -0.0286 C   0  0  0  0  0  0  0  0  0  0  0  0
   -2.5108    1.1646   -0.7855 C   0  0  0  0  0  0  0  0  0  0  0  0
   -1.6033   -2.0139   -0.2591 C   0  0  0  0  0  0  0  0  0  0  0  0
    2.2145    2.6708   -1.0127 C   0  0  2  0  0  0  0  0  0  0  0  0
   -3.6804    1.7206    1.9991 C   0  0  0  0  0  0  0  0  0  0  0  0
   -4.9973    0.9573    0.1402 C   0  0  0  0  0  0  0  0  0  0  0  0
    2.5903    2.5068    0.4685 C   0  0  0  0  0  0  0  0  0  0  0  0
   -0.1879    2.0749   -0.7351 C   0  0  0  0  0  0  0  0  0  0  0  0
   -1.0195   -2.0235   -1.5259 C   0  0  0  0  0  0  0  0  0  0  0  0
   -0.9924   -2.6924    0.7955 C   0  0  0  0  0  0  0  0  0  0  0  0
    1.9614    4.1379   -1.3455 C   0  0  0  0  0  0  0  0  0  0  0  0
    2.8497    1.0702    0.8556 C   0  0  0  0  0  0  0  0  0  0  0  0
    0.1748   -2.7119   -1.7383 C   0  0  0  0  0  0  0  0  0  0  0  0
    0.2020   -3.3808    0.5832 C   0  0  0  0  0  0  0  0  0  0  0  0
    0.7856   -3.3906   -0.6837 C   0  0  0  0  0  0  0  0  0  0  0  0
    2.1567    0.3909    1.8988 C   0  0  0  0  0  0  0  0  0  0  0  0
    3.7837    0.2632    0.2440 C   0  0  0  0  0  0  0  0  0  0  0  0
    2.5872   -0.9094    2.0447 C   0  0  0  0  0  0  0  0  0  0  0  0
   -1.8781    0.2603    1.0872 H   0  0  0  0  0  0  0  0  0  0  0  0
   -3.5191   -1.3561   -0.9285 H   0  0  0  0  0  0  0  0  0  0  0  0
   -3.4473   -1.8185    0.7486 H   0  0  0  0  0  0  0  0  0  0  0  0
   -3.1103    0.8828   -1.6591 H   0  0  0  0  0  0  0  0  0  0  0  0
   -2.7491    2.2040   -0.5391 H   0  0  0  0  0  0  0  0  0  0  0  0
    3.0252    2.3039   -1.6531 H   0  0  0  0  0  0  0  0  0  0  0  0
   -0.8789    0.5891   -2.0068 H   0  0  0  0  0  0  0  0  0  0  0  0
   -2.9259    1.4419    2.7438 H   0  0  0  0  0  0  0  0  0  0  0  0
   -3.3405    2.6285    1.4907 H   0  0  0  0  0  0  0  0  0  0  0  0
   -4.5843    1.9767    2.5640 H   0  0  0  0  0  0  0  0  0  0  0  0
   -5.9487    1.0419    0.6811 H   0  0  0  0  0  0  0  0  0  0  0  0
   -4.8597    1.9189   -0.3663 H   0  0  0  0  0  0  0  0  0  0  0  0
   -5.1672    0.1758   -0.6080 H   0  0  0  0  0  0  0  0  0  0  0  0
    1.8261    2.9315    1.1293 H   0  0  0  0  0  0  0  0  0  0  0  0
    3.5064    3.0790    0.6691 H   0  0  0  0  0  0  0  0  0  0  0  0
    1.1359    1.1689   -2.0597 H   0  0  0  0  0  0  0  0  0  0  0  0
   -1.4950   -1.5181   -2.3618 H   0  0  0  0  0  0  0  0  0  0  0  0
   -1.4350   -2.6892    1.7880 H   0  0  0  0  0  0  0  0  0  0  0  0
    1.2037    4.5966   -0.7032 H   0  0  0  0  0  0  0  0  0  0  0  0
    1.6301    4.2515   -2.3837 H   0  0  0  0  0  0  0  0  0  0  0  0
    2.8830    4.7179   -1.2249 H   0  0  0  0  0  0  0  0  0  0  0  0
    0.6227   -2.7189   -2.7282 H   0  0  0  0  0  0  0  0  0  0  0  0
    0.6687   -3.9043    1.4133 H   0  0  0  0  0  0  0  0  0  0  0  0
    1.3795    0.8275    2.5132 H   0  0  0  0  0  0  0  0  0  0  0  0
    4.4511    0.5138   -0.5688 H   0  0  0  0  0  0  0  0  0  0  0  0
    2.2352   -1.6452    2.7539 H   0  0  0  0  0  0  0  0  0  0  0  0
    2.2344   -4.4672   -0.0532 H   0  0  0  0  0  0  0  0  0  0  0  0
  1 24  1  0  0  0  0
  1 25  1  0  0  0  0
  2 15  2  0  0  0  0
  3 22  1  0  0  0  0
  3 52  1  0  0  0  0
  4  7  1  0  0  0  0
  4 12  1  0  0  0  0
  4 13  1  0  0  0  0
  5  9  1  0  0  0  0
  5 15  1  0  0  0  0
  5 32  1  0  0  0  0
  6 11  1  0  0  0  0
  6 15  1  0  0  0  0
  6 41  1  0  0  0  0
  7  8  1  0  0  0  0
  7  9  1  0  0  0  0
  7 26  1  0  0  0  0
  8 10  1  0  0  0  0
  8 27  1  0  0  0  0
  8 28  1  0  0  0  0
  9 29  1  0  0  0  0
  9 30  1  0  0  0  0
 10 16  2  0  0  0  0
 10 17  1  0  0  0  0
 11 14  1  0  0  0  0
 11 18  1  0  0  0  0
 11 31  1  0  0  0  0
 12 33  1  0  0  0  0
 12 34  1  0  0  0  0
 12 35  1  0  0  0  0
 13 36  1  0  0  0  0
 13 37  1  0  0  0  0
 13 38  1  0  0  0  0
 14 19  1  0  0  0  0
 14 39  1  0  0  0  0
 14 40  1  0  0  0  0
 16 20  1  0  0  0  0
 16 42  1  0  0  0  0
 17 21  2  0  0  0  0
 17 43  1  0  0  0  0
 18 44  1  0  0  0  0
 18 45  1  0  0  0  0
 18 46  1  0  0  0  0
 19 23  1  0  0  0  0
 19 24  2  0  0  0  0
 20 22  2  0  0  0  0
 20 47  1  0  0  0  0
 21 22  1  0  0  0  0
 21 48  1  0  0  0  0
 23 25  2  0  0  0  0
 23 49  1  0  0  0  0
 24 50  1  0  0  0  0
 25 51  1  0  0  0  0
M  END
> <PUBCHEM_COMPOUND_CID>
121596705

> <PUBCHEM_CONFORMER_RMSD>
1.4

> <PUBCHEM_CONFORMER_DIVERSEORDER>
1
33
80
56
58
73
79
5
74
12
25
64
68
19
37
66
55
57
18
24
85
75
81
78
50
35
41
87
69
72
83
13
60
21
77
46
31
27
10
43
86
39
67
47
62
88
42
84
14
45
38
4
63
30
48
52
16
29
51
9
53
65
59
22
70
6
40
32
7
3
2
20
49
76
44
34
54
8
23
28
11
82
61
26
71
36
15
17

> <PUBCHEM_MMFF94_PARTIAL_CHARGES>
34
1 -0.08
10 -0.14
11 0.3
12 0.27
13 0.27
14 0.18
15 0.69
16 -0.15
17 -0.15
19 -0.18
2 -0.57
20 -0.15
21 -0.15
22 0.08
23 -0.15
24 -0.11
25 -0.11
3 -0.53
32 0.37
4 -0.81
41 0.37
42 0.15
43 0.15
47 0.15
48 0.15
49 0.15
5 -0.73
50 0.15
51 0.15
52 0.45
6 -0.73
7 0.27
8 0.14
9 0.3

> <PUBCHEM_EFFECTIVE_ROTOR_COUNT>
10

> <PUBCHEM_PHARMACOPHORE_FEATURES>
7
1 2 acceptor
1 3 donor
1 4 cation
1 5 donor
1 6 donor
5 1 19 23 24 25 rings
6 10 16 17 20 21 22 rings

> <PUBCHEM_HEAVY_ATOM_COUNT>
25

> <PUBCHEM_ATOM_DEF_STEREO_COUNT>
2

> <PUBCHEM_ATOM_UDEF_STEREO_COUNT>
0

> <PUBCHEM_BOND_DEF_STEREO_COUNT>
0

> <PUBCHEM_BOND_UDEF_STEREO_COUNT>
0

> <PUBCHEM_ISOTOPIC_ATOM_COUNT>
0

> <PUBCHEM_COMPONENT_COUNT>
1

> <PUBCHEM_CACTVS_TAUTO_COUNT>
12

> <PUBCHEM_CONFORMER_ID>
073F6B2100000001

> <PUBCHEM_MMFF94_ENERGY>
49.0428

> <PUBCHEM_FEATURE_SELFOVERLAP>
35.571

> <PUBCHEM_SHAPE_FINGERPRINT>
12422481 6 17909248201525428442
12539773 59 18196075854005271379
12553582 1 18188193356630665320
12633257 1 18261100829748548106
12788726 201 17767688630696271215
13032168 30 16966891320736918956
13122387 1 18337939139261949578
13140716 1 18410853295475194131
14114206 34 16969703880186288821
16110190 28 18336253609933547928
19026451 147 15678843217838110782
20764821 26 17544192679717531441
20905425 154 17690551992843873726
23728640 28 17908145726195734599
238 59 17330505949513651998
35225 105 17344631671453125015
3524813 1 18128248974632112362
474 4 18340764854202376067
5283178 26 18341604876779914718
539174 4 17915740873341996273
6287921 2 17843965841134708695

> <PUBCHEM_SHAPE_MULTIPOLES>
491.66
6.85
5.35
1.81
3.38
1.6
0.31
-3.31
2.96
-2.27
-2.15
-0.24
-0.08
-1.53

> <PUBCHEM_SHAPE_SELFOVERLAP>
1000.237

> <PUBCHEM_SHAPE_VOLUME>
288.7

> <PUBCHEM_COORDINATE_TYPE>
2
5
10

$$$$
